/*--------------------------------*- C++ -*----------------------------------*\
| =========                 |                                                 |
| \\      /  F ield         | OpenFOAM: The Open Source CFD Toolbox           |
|  \\    /   O peration     | Version:  2.3.0                                 |
|   \\  /    A nd           | Web:      www.OpenFOAM.org                      |
|    \\/     M anipulation  |                                                 |
\*---------------------------------------------------------------------------*/
FoamFile
{
    version     2.0;
    format      ascii;
    class       dictionary;
    location    "system";
    object      controlDict;
}
// * * * * * * * * * * * * * * * * * * * * * * * * * * * * * * * * * * * * * //

application     tpmtdFoam;

startFrom       startTime;

startTime       0;

stopAt          endTime;

endTime         1.0;

deltaT          0.05;//1e-5;

writeControl    adjustableRunTime;

writeInterval   0.05;

purgeWrite      0;

writeFormat     ascii;

writePrecision  6;

writeCompression uncompressed;

timeFormat      general;

timePrecision   6;

runTimeModifiable yes;

adjustTimeStep  yes;

maxCo           0.25;
maxAlphaCo      0.25;

maxDeltaT       1e-5;

fieldsToExtract (C_1);
fixedCoordinateName x;
fixedCoordinateValues (0.002501 0.00501);
dxValue 5e-4;
dyValue 2.5e-5; 

functions
{
    fieldAverage1
    {
        type            fieldAverage;
        functionObjectLibs ( "libfieldFunctionObjects.so" );
        enabled         false;
        resetOnOutput   false;
        outputControl   outputTime;

        fields
	(
            U
            {
	      mean        on;
	      prime2Mean  on;
	      base        time;
            }

	    p_rgh
            {
	      mean        on;
	      prime2Mean  on;
	      base        time;
            }

	    alpha.oil
            {
	      mean        on;
	      prime2Mean  on;
	      base        time;
            }
	);
    }
}

// ************************************************************************* //
